Version 4
SHEET 1 880 680
WIRE 96 80 0 80
WIRE 192 80 176 80
WIRE 208 80 192 80
WIRE 336 80 288 80
WIRE 416 80 336 80
WIRE 0 128 0 80
WIRE 336 128 336 80
WIRE 416 128 416 80
WIRE 0 272 0 208
WIRE 336 272 336 208
WIRE 336 272 0 272
WIRE 416 272 416 192
WIRE 416 272 336 272
FLAG 0 80 1
FLAG 192 80 2
FLAG 336 80 3
FLAG 336 272 0
SYMBOL voltage 0 112 R0
WINDOW 123 24 124 Left 2
WINDOW 39 0 0 Left 0
SYMATTR InstName V1
SYMATTR Value ""
SYMATTR Value2 AC 5 0
SYMBOL res 80 96 R270
WINDOW 0 32 56 VTop 2
WINDOW 3 0 56 VBottom 2
SYMATTR InstName R1
SYMATTR Value 130
SYMBOL res 192 96 R270
WINDOW 0 32 56 VTop 2
WINDOW 3 0 56 VBottom 2
SYMATTR InstName R2
SYMATTR Value 51
SYMBOL res 320 112 R0
SYMATTR InstName R3
SYMATTR Value 620
SYMBOL cap 400 128 R0
SYMATTR InstName C1
SYMATTR Value 33µ
TEXT -34 282 Left 2 !.ac list 60
